Circuit: *------------------------------------------------------------------------------------------------------------------------- * SPICE model for amplifier with compensation

Fatal Error: No analysis request found.
