Circuit: * --------- OP-AMP MODEL -------------

Fatal Error: Multiple instances of "C1"
