Circuit: * SPICE model for differential amplifier

Fatal Error: No analysis request found.
